src/test/resources/ForSean.glm
// $id$
//	Copyright (C) 2008 Battelle Memorial Institute

// 4 Node Feeder: Balanced step-down grY-grY
//  w/ a triplex system and residential load added

/////////////////////////////////////////////
// BEGIN
/////////////////////////////////////////////

#set savefile=testSean.xml
#set profiler=1

clock {
	timezone PST+8PDT;
	starttime '2000-01-01 0:00:00';
	stoptime '2000-02-01 0:00:00';
}

module powerflow {
	solver_method FBS;
}
module residential {
	implicit_enduses NONE;
}
module climate;
module tape;

object climate{
	name MyClimate;
	tmyfile WA-Yakima.tmy2;
}

object overhead_line_conductor {
	name phase_conductor;
	geometric_mean_radius 0.0313 ft;
	resistance 0.1859 Ohm/mile;
	diameter 0.927 in;
}

object overhead_line_conductor {
	name neutral_conductor;
	geometric_mean_radius 0.00814 ft;
	resistance 0.492 Ohm/mile;
	diameter 0.563 in;
}

object line_spacing {
	name standard_spacing;
	distance_AB 7.0;
	distance_BC 4.5;
	distance_AC 2.5;
	distance_AN 5.656854;
	distance_BN 5.0;
	distance_CN 4.272002;
}

object line_configuration {
	name line_config1;
	conductor_A phase_conductor;
	conductor_B phase_conductor;
	conductor_C phase_conductor;
	conductor_N neutral_conductor;
	spacing standard_spacing;
}

object node {
	name node1;
	phases "ABCN";
	voltage_A +7199.558+0.000j;
	voltage_B -3599.779-6235.000j;
	voltage_C -3599.779+6235.000j;
	nominal_voltage 7200;
}

object overhead_line {
	phases "ABCN";
	from node1;
	to node2;
	length 1 mile;
	configuration line_config1;
}

object node {
	name node2;
	phases "ABCN";
	voltage_A +7199.558+0.000j;
	voltage_B -3599.779-6235.000j;
	voltage_C -3599.779+6235.000j;
	nominal_voltage 7200;
}

object transformer_configuration {
	connect_type WYE_WYE;
	name transformer_config1;
	power_rating 6000;
	powerA_rating 2000;
	powerB_rating 2000;
	powerC_rating 2000;
	primary_voltage 12470;
	secondary_voltage 4160;
	resistance 0.01;
	reactance 0.06;
}

object transformer {
	phases ABCN;
	from node2;
	to node3;
	configuration transformer_config1;
}

object node {
	name node3;
	phases ABCN;
	nominal_voltage 2400;
}

object overhead_line {
	phases ABCN;
	from node3;
	to node4;
	length 500 ft;
	configuration line_config1;
}

object node {
	name node4;
	phases "ABCN";
	nominal_voltage 2400;
}

object transformer_configuration {
	connect_type SINGLE_PHASE_CENTER_TAPPED;
	install_type POLETOP;
	shunt_impedance 10000+10000j;
	primary_voltage 2401.777;
	secondary_voltage 120;
	powerA_rating 100 kVA;
	impedance 0.00033+0.0022j;
	name transformer_config2;
}

object transformer {
	name distribution_transformer;
	phases AS;
	from node4;
	to trip_node1;
	configuration transformer_config2;
}

object triplex_node {
	name trip_node1;
	phases AS;
	nominal_voltage 120;
}

object triplex_line_configuration {
	name trip_line_config;
	conductor_1 trip_conductor1;
	conductor_2 trip_conductor1;
	conductor_N trip_conductor1;
    insulation_thickness 0.08; 
    diameter 0.522; 
}

object triplex_line_conductor {
	name trip_conductor1;
	resistance 0.97;
	geometric_mean_radius 0.01111;
}

object triplex_line {
	phases AS;
	from trip_node1;
	to trip_meter1;
	length 25 ft;
	configuration trip_line_config;
}


object triplex_meter {
	nominal_voltage 120;
	phases AS;
	name trip_meter1;
}
	
object house {
	parent trip_meter1;
	name house1;
	
	object ZIPload {
		heat_fraction 0.8;
		base_power 1 kW;
		power_pf -0.9;
		power_fraction .25;
		current_pf .85;
		current_fraction .25;
		impedance_pf 1;
		impedance_fraction .5;
	};
}

object recorder {
	interval 1800 s;
	file test_outputs.csv;
	property air_temperature;
	parent house1;
}